
     RDKit          3D

 51 55  0  0  0  0  0  0  0  0999 V2000
   -3.2360   -3.7344   -1.0263 C   0  0  0  0  0  0  0  0  0  0  0  0
   -3.0053   -2.3943   -0.5137 N   0  0  0  0  0  0  0  0  0  0  0  0
   -4.1014   -1.5448   -0.5632 C   0  0  0  0  0  0  0  0  0  0  0  0
   -5.2540   -1.9053   -0.7999 O   0  0  0  0  0  0  0  0  0  0  0  0
   -3.8648   -0.1123   -0.3312 C   0  0  0  0  0  0  0  0  0  0  0  0
   -2.6395    0.4093   -0.1806 C   0  0  0  0  0  0  0  0  0  0  0  0
   -1.4860   -0.5185   -0.1740 C   0  0  0  0  0  0  0  0  0  0  0  0
   -1.6783   -1.9210   -0.2051 C   0  0  0  0  0  0  0  0  0  0  0  0
   -0.5726   -2.7747    0.0388 C   0  0  0  0  0  0  0  0  0  0  0  0
    0.7643   -2.2638    0.0107 C   0  0  0  0  0  0  0  0  0  0  0  0
    0.9575   -0.8556   -0.0368 C   0  0  0  0  0  0  0  0  0  0  0  0
   -0.1633   -0.0234   -0.1152 C   0  0  0  0  0  0  0  0  0  0  0  0
    0.3208    1.2682   -0.1529 N   0  0  0  0  0  0  0  0  0  0  0  0
    1.6858    1.3114   -0.0633 C   0  0  0  0  0  0  0  0  0  0  0  0
    2.1250   -0.0033    0.0221 C   0  0  0  0  0  0  0  0  0  0  0  0
    3.5168   -0.2130    0.1563 C   0  0  0  0  0  0  0  0  0  0  0  0
    4.4070    0.8714    0.1778 C   0  0  0  0  0  0  0  0  0  0  0  0
    3.9191    2.1706    0.0728 C   0  0  0  0  0  0  0  0  0  0  0  0
    2.5467    2.4143   -0.0470 C   0  0  0  0  0  0  0  0  0  0  0  0
    5.7237    0.5166    0.3089 O   0  0  0  0  0  0  0  0  0  0  0  0
    6.6760    1.5720    0.3340 C   0  0  0  0  0  0  0  0  0  0  0  0
    1.9419   -3.2090    0.0711 C   0  0  0  0  0  0  0  0  0  0  0  0
   -0.7543   -4.2247    0.4363 C   0  0  0  0  0  0  0  0  0  0  0  0
   -2.6372    1.8666    0.0542 C   0  0  0  0  0  0  0  0  0  0  0  0
   -2.7845    2.7596   -1.0164 C   0  0  0  0  0  0  0  0  0  0  0  0
   -2.7588    4.1365   -0.7904 C   0  0  0  0  0  0  0  0  0  0  0  0
   -2.5902    4.6284    0.5036 C   0  0  0  0  0  0  0  0  0  0  0  0
   -2.4505    3.7462    1.5745 C   0  0  0  0  0  0  0  0  0  0  0  0
   -2.4764    2.3687    1.3527 C   0  0  0  0  0  0  0  0  0  0  0  0
   -4.1130   -3.7610   -1.6825 H   0  0  0  0  0  0  0  0  0  0  0  0
   -3.4353   -4.4171   -0.1970 H   0  0  0  0  0  0  0  0  0  0  0  0
   -2.3948   -4.0687   -1.6385 H   0  0  0  0  0  0  0  0  0  0  0  0
   -4.7660    0.4927   -0.3177 H   0  0  0  0  0  0  0  0  0  0  0  0
   -0.2491    2.0955   -0.2356 H   0  0  0  0  0  0  0  0  0  0  0  0
    3.9208   -1.2147    0.2540 H   0  0  0  0  0  0  0  0  0  0  0  0
    4.5816    3.0299    0.0863 H   0  0  0  0  0  0  0  0  0  0  0  0
    2.1679    3.4291   -0.1193 H   0  0  0  0  0  0  0  0  0  0  0  0
    6.6645    2.1368   -0.6041 H   0  0  0  0  0  0  0  0  0  0  0  0
    7.6686    1.1239    0.4400 H   0  0  0  0  0  0  0  0  0  0  0  0
    6.5142    2.2294    1.1946 H   0  0  0  0  0  0  0  0  0  0  0  0
    1.6963   -4.2016   -0.3183 H   0  0  0  0  0  0  0  0  0  0  0  0
    2.2982   -3.3034    1.1009 H   0  0  0  0  0  0  0  0  0  0  0  0
    2.7545   -2.8524   -0.5670 H   0  0  0  0  0  0  0  0  0  0  0  0
   -1.6845   -4.3682    0.9922 H   0  0  0  0  0  0  0  0  0  0  0  0
   -0.7169   -4.8832   -0.4352 H   0  0  0  0  0  0  0  0  0  0  0  0
    0.0191   -4.5421    1.1447 H   0  0  0  0  0  0  0  0  0  0  0  0
   -2.9154    2.3866   -2.0304 H   0  0  0  0  0  0  0  0  0  0  0  0
   -2.8752    4.8259   -1.6232 H   0  0  0  0  0  0  0  0  0  0  0  0
   -2.5753    5.7015    0.6790 H   0  0  0  0  0  0  0  0  0  0  0  0
   -2.3258    4.1309    2.5839 H   0  0  0  0  0  0  0  0  0  0  0  0
   -2.3661    1.6886    2.1953 H   0  0  0  0  0  0  0  0  0  0  0  0
  1  2  1  0
  2  3  1  0
  3  4  2  0
  3  5  1  0
  5  6  2  0
  6  7  1  0
  7  8  1  0
  8  9  2  0
  9 10  1  0
 10 11  2  0
 11 12  1  0
 12 13  1  0
 13 14  1  0
 14 15  1  0
 15 16  2  0
 16 17  1  0
 17 18  2  0
 18 19  1  0
 17 20  1  0
 20 21  1  0
 10 22  1  0
  9 23  1  0
  6 24  1  0
 24 25  2  0
 25 26  1  0
 26 27  2  0
 27 28  1  0
 28 29  2  0
  8  2  1  0
 12  7  2  0
 15 11  1  0
 19 14  2  0
 29 24  1  0
  1 30  1  0
  1 31  1  0
  1 32  1  0
  5 33  1  0
 13 34  1  0
 16 35  1  0
 18 36  1  0
 19 37  1  0
 21 38  1  0
 21 39  1  0
 21 40  1  0
 22 41  1  0
 22 42  1  0
 22 43  1  0
 23 44  1  0
 23 45  1  0
 23 46  1  0
 25 47  1  0
 26 48  1  0
 27 49  1  0
 28 50  1  0
 29 51  1  0
M  END
